* plot Ids vs. Vds for 5 different Vgs values
.include "nominal.jsim"
.include "lab1checkoff.jsim"
.include "util.jsim"
.subckt F a b c z
MPD4 z c 0 0 NENH sw=8 sl=1
MPD5 z a l 0 NENH sw=8 sl=1
MPD6 l b 0 0 NENH sw=8 sl=1
MPD1 z a t vdd PENH sw=8 sl=1
MPD2 z b t vdd PENH sw=8 sl=1
MPD3 t c vdd vdd PENH sw=8 sl=1
.ends
